
#######################################################################
#
#                 Cambridge Crystallographic Data Centre
#                                CCDC 
#
#######################################################################
#
# If this CIF has been generated from an entry in the Cambridge 
# Structural Database, then it will include bibliographic, chemical, 
# crystal, experimental, refinement or atomic coordinate data resulting 
# from the CCDC's data processing and validation procedures.
#
#######################################################################

data_HXACAN46
_symmetry_cell_setting           orthorhombic
_symmetry_space_group_name_H-M   'P b c a'
_symmetry_Int_Tables_number      61
_space_group_name_Hall           '-P 2ac 2ab'
loop_
_symmetry_equiv_pos_site_id
_symmetry_equiv_pos_as_xyz
1 x,y,z
2 1/2-x,-y,1/2+z
3 -x,1/2+y,1/2-z
4 1/2+x,1/2-y,-z
5 -x,-y,-z
6 1/2+x,y,1/2-z
7 x,1/2-y,1/2+z
8 1/2-x,1/2+y,z
_cell_length_a                   17.1522(5)
_cell_length_b                   11.8201(4)
_cell_length_c                   7.3985(2)
_cell_angle_alpha                90
_cell_angle_beta                 90
_cell_angle_gamma                90
_cell_volume                     1499.98
loop_
_atom_site_label
_atom_site_type_symbol
_atom_site_fract_x
_atom_site_fract_y
_atom_site_fract_z
_atom_site_U_iso_or_equiv
_atom_site_thermal_displace_type
O1 O 0.63245(7) 0.23690(10) 0.2306(2) 0.0525 Uani
H1 H 0.5953 0.1935 0.2219 0.0790 Uiso
O2 O 1.00319(7) 0.10321(11) 0.2719(2) 0.0680 Uani
N1 N 0.90532(8) -0.01815(11) 0.2088(2) 0.0429 Uani
H2 H 0.8957 -0.0883 0.1875 0.0520 Uiso
C1 C 0.77181(5) 0.01004(6) 0.12953(14) 0.0379 Uani
H3 H 0.7731 -0.0607 0.0744 0.0450 Uiso
C2 C 0.83906(4) 0.05448(7) 0.20663(14) 0.0348 Uani
C3 C 0.83716(4) 0.16014(7) 0.28900(14) 0.0374 Uani
H4 H 0.8822 0.1899 0.3406 0.0450 Uiso
C4 C 0.76801(5) 0.22135(6) 0.29426(14) 0.0386 Uani
H5 H 0.7667 0.2920 0.3494 0.0460 Uiso
C5 C 0.70075(4) 0.17691(7) 0.21716(15) 0.0366 Uani
C6 C 0.70265(4) 0.07125(8) 0.13480(14) 0.0383 Uani
H6 H 0.6577 0.0415 0.0832 0.0460 Uiso
C7 C 0.98041(9) 0.00662(14) 0.2392(3) 0.0445 Uani
C8 C 1.03477(11) -0.09314(17) 0.2303(3) 0.0582 Uani
H7 H 1.0838 -0.0697 0.1803 0.0870 Uiso
H8 H 1.0123 -0.1508 0.1552 0.0870 Uiso
H9 H 1.0429 -0.1226 0.3498 0.0870 Uiso
loop_
_atom_site_aniso_label
_atom_site_aniso_U_11
_atom_site_aniso_U_22
_atom_site_aniso_U_33
_atom_site_aniso_U_23
_atom_site_aniso_U_13
_atom_site_aniso_U_12
O1 0.0334(6) 0.0352(6) 0.0890(9) -0.0024(6) 0.0007(6) 0.0043(5)
O2 0.0338(6) 0.0413(8) 0.1290(13) -0.0138(7) -0.0028(7) -0.0041(5)
N1 0.0329(7) 0.0280(6) 0.0679(10) -0.0040(6) 0.0023(6) -0.0001(5)
C1 0.0382(8) 0.0299(7) 0.0455(8) -0.0055(6) 0.0019(6) -0.0026(6)
C2 0.0307(7) 0.0291(7) 0.0447(8) 0.0007(6) 0.0039(6) -0.0013(6)
C3 0.0330(7) 0.0301(7) 0.0492(9) -0.0026(6) -0.0001(6) -0.0040(6)
C4 0.0393(8) 0.0278(7) 0.0486(9) -0.0029(6) 0.0040(6) -0.0021(6)
C5 0.0327(7) 0.0301(7) 0.0471(8) 0.0041(6) 0.0033(6) 0.0016(6)
C6 0.0330(7) 0.0366(8) 0.0454(8) -0.0006(7) -0.0024(6) -0.0041(6)
C7 0.0337(8) 0.0357(8) 0.0641(10) -0.0012(7) 0.0028(7) 0.0018(7)
C8 0.0401(9) 0.0462(10) 0.0884(14) -0.0040(9) -0.0010(9) 0.0087(8)

#END
